data_image0
_chemical_formula_structural       CsH2
_chemical_formula_sum              "Cs1 H2"
_cell_length_a       6.3483
_cell_length_b       6.3483
_cell_length_c       11.8099
_cell_angle_alpha    90
_cell_angle_beta     90
_cell_angle_gamma    120

_space_group_name_H-M_alt    "P 1"
_space_group_IT_number       1

loop_
  _space_group_symop_operation_xyz
  'x, y, z'

loop_
  _atom_site_type_symbol
  _atom_site_label
  _atom_site_symmetry_multiplicity
  _atom_site_fract_x
  _atom_site_fract_y
  _atom_site_fract_z
  _atom_site_occupancy
  Cs  Cs1       1.0  0.00000  0.00000  0.00000  1.0000
  H   H1        1.0  1.00000  0.11280  0.75000  1.0000
  H   H2        1.0  1.00000  0.88720  0.25000  1.0000
