data_image0
_chemical_formula_structural       KNa2Tl
_chemical_formula_sum              "K1 Na2 Tl1"
_cell_length_a       13.978
_cell_length_b       14.2111
_cell_length_c       20.0251
_cell_angle_alpha    90
_cell_angle_beta     90
_cell_angle_gamma    90

_space_group_name_H-M_alt    "P 1"
_space_group_IT_number       1

loop_
  _space_group_symop_operation_xyz
  'x, y, z'

loop_
  _atom_site_type_symbol
  _atom_site_label
  _atom_site_symmetry_multiplicity
  _atom_site_fract_x
  _atom_site_fract_y
  _atom_site_fract_z
  _atom_site_occupancy
  K   K1        1.0  0.00000  0.00000  0.00000  1.0000
  Na  Na1       1.0  0.23860  0.50000  0.50000  1.0000
  Na  Na2       1.0  0.76140  0.50000  0.50000  1.0000
  Tl  Tl1       1.0  0.00000  0.50000  0.50000  1.0000
